<?xml version="1.0" encoding="UTF-8"?>

<!-- generated on 2026-03-16 15:31:55 by Eclipse SUMO netgenerate Version 1.24.0
<netgenerateConfiguration xmlns:xsi="http://www.w3.org/2001/XMLSchema-instance" xsi:noNamespaceSchemaLocation="http://sumo.dlr.de/xsd/netgenerateConfiguration.xsd">

    <grid_network>
        <grid value="true"/>
        <grid.number value="2"/>
        <grid.length value="200"/>
    </grid_network>

    <output>
        <output-file value="simple_intersection.net.xml"/>
    </output>

    <building_defaults>
        <default.lanenumber value="2"/>
    </building_defaults>

</netgenerateConfiguration>
-->

<net version="1.20" junctionCornerDetail="5" limitTurnSpeed="5.50" xmlns:xsi="http://www.w3.org/2001/XMLSchema-instance" xsi:noNamespaceSchemaLocation="http://sumo.dlr.de/xsd/net_file.xsd">

    <location netOffset="0.00,0.00" convBoundary="0.00,0.00,200.00,200.00" origBoundary="0.00,0.00,200.00,200.00" projParameter="!"/>

    <edge id=":A0_0" function="internal">
        <lane id=":A0_0_0" index="0" speed="8.96" length="18.06" shape="-4.80,6.40 -4.10,1.50 -2.00,-2.00 1.50,-4.10 6.40,-4.80"/>
        <lane id=":A0_0_1" index="1" speed="7.66" length="12.90" shape="-1.60,6.40 -1.10,2.90 0.40,0.40 2.90,-1.10 6.40,-1.60"/>
    </edge>
    <edge id=":A0_2" function="internal">
        <lane id=":A0_2_0" index="0" speed="3.90" length="2.58" shape="6.40,4.80 5.70,4.90 5.20,5.20 4.90,5.70 4.80,6.40"/>
        <lane id=":A0_2_1" index="1" speed="6.08" length="7.74" shape="6.40,1.60 4.30,1.90 2.80,2.80 1.90,4.30 1.60,6.40"/>
    </edge>
    <edge id=":A1_0" function="internal">
        <lane id=":A1_0_0" index="0" speed="8.96" length="18.06" shape="6.40,204.80 1.50,204.10 -2.00,202.00 -4.10,198.50 -4.80,193.60"/>
        <lane id=":A1_0_1" index="1" speed="7.66" length="12.90" shape="6.40,201.60 2.90,201.10 0.40,199.60 -1.10,197.10 -1.60,193.60"/>
    </edge>
    <edge id=":A1_2" function="internal">
        <lane id=":A1_2_0" index="0" speed="3.90" length="2.58" shape="4.80,193.60 4.90,194.30 5.20,194.80 5.70,195.10 6.40,195.20"/>
        <lane id=":A1_2_1" index="1" speed="6.08" length="7.74" shape="1.60,193.60 1.90,195.70 2.80,197.20 4.30,198.10 6.40,198.40"/>
    </edge>
    <edge id=":B0_0" function="internal">
        <lane id=":B0_0_0" index="0" speed="3.90" length="2.58" shape="195.20,6.40 195.10,5.70 194.80,5.20 194.30,4.90 193.60,4.80"/>
        <lane id=":B0_0_1" index="1" speed="6.08" length="7.74" shape="198.40,6.40 198.10,4.30 197.20,2.80 195.70,1.90 193.60,1.60"/>
    </edge>
    <edge id=":B0_2" function="internal">
        <lane id=":B0_2_0" index="0" speed="8.96" length="18.06" shape="193.60,-4.80 198.50,-4.10 202.00,-2.00 204.10,1.50 204.80,6.40"/>
        <lane id=":B0_2_1" index="1" speed="7.66" length="12.90" shape="193.60,-1.60 197.10,-1.10 199.60,0.40 201.10,2.90 201.60,6.40"/>
    </edge>
    <edge id=":B1_0" function="internal">
        <lane id=":B1_0_0" index="0" speed="8.96" length="18.06" shape="204.80,193.60 204.10,198.50 202.00,202.00 198.50,204.10 193.60,204.80"/>
        <lane id=":B1_0_1" index="1" speed="7.66" length="12.90" shape="201.60,193.60 201.10,197.10 199.60,199.60 197.10,201.10 193.60,201.60"/>
    </edge>
    <edge id=":B1_2" function="internal">
        <lane id=":B1_2_0" index="0" speed="3.90" length="2.58" shape="193.60,195.20 194.30,195.10 194.80,194.80 195.10,194.30 195.20,193.60"/>
        <lane id=":B1_2_1" index="1" speed="6.08" length="7.74" shape="193.60,198.40 195.70,198.10 197.20,197.20 198.10,195.70 198.40,193.60"/>
    </edge>

    <edge id="A0A1" from="A0" to="A1" priority="-1">
        <lane id="A0A1_0" index="0" speed="13.89" length="187.20" shape="4.80,6.40 4.80,193.60"/>
        <lane id="A0A1_1" index="1" speed="13.89" length="187.20" shape="1.60,6.40 1.60,193.60"/>
    </edge>
    <edge id="A0B0" from="A0" to="B0" priority="-1">
        <lane id="A0B0_0" index="0" speed="13.89" length="187.20" shape="6.40,-4.80 193.60,-4.80"/>
        <lane id="A0B0_1" index="1" speed="13.89" length="187.20" shape="6.40,-1.60 193.60,-1.60"/>
    </edge>
    <edge id="A1A0" from="A1" to="A0" priority="-1">
        <lane id="A1A0_0" index="0" speed="13.89" length="187.20" shape="-4.80,193.60 -4.80,6.40"/>
        <lane id="A1A0_1" index="1" speed="13.89" length="187.20" shape="-1.60,193.60 -1.60,6.40"/>
    </edge>
    <edge id="A1B1" from="A1" to="B1" priority="-1">
        <lane id="A1B1_0" index="0" speed="13.89" length="187.20" shape="6.40,195.20 193.60,195.20"/>
        <lane id="A1B1_1" index="1" speed="13.89" length="187.20" shape="6.40,198.40 193.60,198.40"/>
    </edge>
    <edge id="B0A0" from="B0" to="A0" priority="-1">
        <lane id="B0A0_0" index="0" speed="13.89" length="187.20" shape="193.60,4.80 6.40,4.80"/>
        <lane id="B0A0_1" index="1" speed="13.89" length="187.20" shape="193.60,1.60 6.40,1.60"/>
    </edge>
    <edge id="B0B1" from="B0" to="B1" priority="-1">
        <lane id="B0B1_0" index="0" speed="13.89" length="187.20" shape="204.80,6.40 204.80,193.60"/>
        <lane id="B0B1_1" index="1" speed="13.89" length="187.20" shape="201.60,6.40 201.60,193.60"/>
    </edge>
    <edge id="B1A1" from="B1" to="A1" priority="-1">
        <lane id="B1A1_0" index="0" speed="13.89" length="187.20" shape="193.60,204.80 6.40,204.80"/>
        <lane id="B1A1_1" index="1" speed="13.89" length="187.20" shape="193.60,201.60 6.40,201.60"/>
    </edge>
    <edge id="B1B0" from="B1" to="B0" priority="-1">
        <lane id="B1B0_0" index="0" speed="13.89" length="187.20" shape="195.20,193.60 195.20,6.40"/>
        <lane id="B1B0_1" index="1" speed="13.89" length="187.20" shape="198.40,193.60 198.40,6.40"/>
    </edge>

    <junction id="A0" type="priority" x="0.00" y="0.00" incLanes="A1A0_0 A1A0_1 B0A0_0 B0A0_1" intLanes=":A0_0_0 :A0_0_1 :A0_2_0 :A0_2_1" shape="-6.40,6.40 6.40,6.40 6.40,-6.40 2.49,-6.04 -0.71,-4.98 -3.20,-3.20 -4.98,-0.71 -6.04,2.49">
        <request index="0" response="0000" foes="0000" cont="0"/>
        <request index="1" response="0000" foes="0000" cont="0"/>
        <request index="2" response="0000" foes="0000" cont="0"/>
        <request index="3" response="0000" foes="0000" cont="0"/>
    </junction>
    <junction id="A1" type="priority" x="0.00" y="200.00" incLanes="B1A1_0 B1A1_1 A0A1_0 A0A1_1" intLanes=":A1_0_0 :A1_0_1 :A1_2_0 :A1_2_1" shape="6.40,206.40 6.40,193.60 -6.40,193.60 -6.04,197.51 -4.98,200.71 -3.20,203.20 -0.71,204.98 2.49,206.04">
        <request index="0" response="0000" foes="0000" cont="0"/>
        <request index="1" response="0000" foes="0000" cont="0"/>
        <request index="2" response="0000" foes="0000" cont="0"/>
        <request index="3" response="0000" foes="0000" cont="0"/>
    </junction>
    <junction id="B0" type="priority" x="200.00" y="0.00" incLanes="B1B0_0 B1B0_1 A0B0_0 A0B0_1" intLanes=":B0_0_0 :B0_0_1 :B0_2_0 :B0_2_1" shape="193.60,6.40 206.40,6.40 206.04,2.49 204.98,-0.71 203.20,-3.20 200.71,-4.98 197.51,-6.04 193.60,-6.40">
        <request index="0" response="0000" foes="0000" cont="0"/>
        <request index="1" response="0000" foes="0000" cont="0"/>
        <request index="2" response="0000" foes="0000" cont="0"/>
        <request index="3" response="0000" foes="0000" cont="0"/>
    </junction>
    <junction id="B1" type="priority" x="200.00" y="200.00" incLanes="B0B1_0 B0B1_1 A1B1_0 A1B1_1" intLanes=":B1_0_0 :B1_0_1 :B1_2_0 :B1_2_1" shape="206.40,193.60 193.60,193.60 193.60,206.40 197.51,206.04 200.71,204.98 203.20,203.20 204.98,200.71 206.04,197.51">
        <request index="0" response="0000" foes="0000" cont="0"/>
        <request index="1" response="0000" foes="0000" cont="0"/>
        <request index="2" response="0000" foes="0000" cont="0"/>
        <request index="3" response="0000" foes="0000" cont="0"/>
    </junction>

    <connection from="A0A1" to="A1B1" fromLane="0" toLane="0" via=":A1_2_0" dir="r" state="M"/>
    <connection from="A0A1" to="A1B1" fromLane="1" toLane="1" via=":A1_2_1" dir="r" state="M"/>
    <connection from="A0B0" to="B0B1" fromLane="0" toLane="0" via=":B0_2_0" dir="l" state="M"/>
    <connection from="A0B0" to="B0B1" fromLane="1" toLane="1" via=":B0_2_1" dir="l" state="M"/>
    <connection from="A1A0" to="A0B0" fromLane="0" toLane="0" via=":A0_0_0" dir="l" state="M"/>
    <connection from="A1A0" to="A0B0" fromLane="1" toLane="1" via=":A0_0_1" dir="l" state="M"/>
    <connection from="A1B1" to="B1B0" fromLane="0" toLane="0" via=":B1_2_0" dir="r" state="M"/>
    <connection from="A1B1" to="B1B0" fromLane="1" toLane="1" via=":B1_2_1" dir="r" state="M"/>
    <connection from="B0A0" to="A0A1" fromLane="0" toLane="0" via=":A0_2_0" dir="r" state="M"/>
    <connection from="B0A0" to="A0A1" fromLane="1" toLane="1" via=":A0_2_1" dir="r" state="M"/>
    <connection from="B0B1" to="B1A1" fromLane="0" toLane="0" via=":B1_0_0" dir="l" state="M"/>
    <connection from="B0B1" to="B1A1" fromLane="1" toLane="1" via=":B1_0_1" dir="l" state="M"/>
    <connection from="B1A1" to="A1A0" fromLane="0" toLane="0" via=":A1_0_0" dir="l" state="M"/>
    <connection from="B1A1" to="A1A0" fromLane="1" toLane="1" via=":A1_0_1" dir="l" state="M"/>
    <connection from="B1B0" to="B0A0" fromLane="0" toLane="0" via=":B0_0_0" dir="r" state="M"/>
    <connection from="B1B0" to="B0A0" fromLane="1" toLane="1" via=":B0_0_1" dir="r" state="M"/>

    <connection from=":A0_0" to="A0B0" fromLane="0" toLane="0" dir="l" state="M"/>
    <connection from=":A0_0" to="A0B0" fromLane="1" toLane="1" dir="l" state="M"/>
    <connection from=":A0_2" to="A0A1" fromLane="0" toLane="0" dir="r" state="M"/>
    <connection from=":A0_2" to="A0A1" fromLane="1" toLane="1" dir="r" state="M"/>
    <connection from=":A1_0" to="A1A0" fromLane="0" toLane="0" dir="l" state="M"/>
    <connection from=":A1_0" to="A1A0" fromLane="1" toLane="1" dir="l" state="M"/>
    <connection from=":A1_2" to="A1B1" fromLane="0" toLane="0" dir="r" state="M"/>
    <connection from=":A1_2" to="A1B1" fromLane="1" toLane="1" dir="r" state="M"/>
    <connection from=":B0_0" to="B0A0" fromLane="0" toLane="0" dir="r" state="M"/>
    <connection from=":B0_0" to="B0A0" fromLane="1" toLane="1" dir="r" state="M"/>
    <connection from=":B0_2" to="B0B1" fromLane="0" toLane="0" dir="l" state="M"/>
    <connection from=":B0_2" to="B0B1" fromLane="1" toLane="1" dir="l" state="M"/>
    <connection from=":B1_0" to="B1A1" fromLane="0" toLane="0" dir="l" state="M"/>
    <connection from=":B1_0" to="B1A1" fromLane="1" toLane="1" dir="l" state="M"/>
    <connection from=":B1_2" to="B1B0" fromLane="0" toLane="0" dir="r" state="M"/>
    <connection from=":B1_2" to="B1B0" fromLane="1" toLane="1" dir="r" state="M"/>

</net>
