<?xml version="1.0" encoding="UTF-8"?>

<!-- generated on 2026-03-16 15:04:51 by Eclipse SUMO netgenerate Version 1.24.0
<netgenerateConfiguration xmlns:xsi="http://www.w3.org/2001/XMLSchema-instance" xsi:noNamespaceSchemaLocation="http://sumo.dlr.de/xsd/netgenerateConfiguration.xsd">

    <grid_network>
        <grid value="true"/>
        <grid.number value="1"/>
        <grid.attach-length value="500"/>
    </grid_network>

    <output>
        <output-file value="highway_section.net.xml"/>
    </output>

    <building_defaults>
        <default.lanenumber value="3"/>
    </building_defaults>

</netgenerateConfiguration>
-->

<net version="1.20" junctionCornerDetail="5" limitTurnSpeed="5.50" xmlns:xsi="http://www.w3.org/2001/XMLSchema-instance" xsi:noNamespaceSchemaLocation="http://sumo.dlr.de/xsd/net_file.xsd">

    <location netOffset="0.00,0.00" convBoundary="0.00,0.00,1000.00,1000.00" origBoundary="0.00,0.00,1000.00,1000.00" projParameter="!"/>

    <edge id=":A0_0" function="internal">
        <lane id=":A0_0_0" index="0" speed="6.51" length="9.03" shape="492.00,513.60 491.65,511.15 490.60,509.40 488.85,508.35 486.40,508.00"/>
    </edge>
    <edge id=":A0_1" function="internal">
        <lane id=":A0_1_0" index="0" speed="13.89" length="27.20" shape="492.00,513.60 492.00,486.40"/>
        <lane id=":A0_1_1" index="1" speed="13.89" length="27.20" shape="495.20,513.60 495.20,486.40"/>
        <lane id=":A0_1_2" index="2" speed="13.89" length="27.20" shape="498.40,513.60 498.40,486.40"/>
    </edge>
    <edge id=":A0_4" function="internal">
        <lane id=":A0_4_0" index="0" speed="10.36" length="5.01" shape="498.40,513.60 499.11,508.64"/>
    </edge>
    <edge id=":A0_5" function="internal">
        <lane id=":A0_5_0" index="0" speed="3.65" length="1.44" shape="498.40,513.60 499.20,512.40"/>
    </edge>
    <edge id=":A0_24" function="internal">
        <lane id=":A0_24_0" index="0" speed="10.36" length="19.50" shape="499.11,508.64 499.35,506.95 502.20,502.20 506.95,499.35 513.60,498.40"/>
    </edge>
    <edge id=":A0_25" function="internal">
        <lane id=":A0_25_0" index="0" speed="3.65" length="3.23" shape="499.20,512.40 500.00,512.00 500.80,512.40 501.60,513.60"/>
    </edge>
    <edge id=":A0_6" function="internal">
        <lane id=":A0_6_0" index="0" speed="6.51" length="9.03" shape="513.60,508.00 511.15,508.35 509.40,509.40 508.35,511.15 508.00,513.60"/>
    </edge>
    <edge id=":A0_7" function="internal">
        <lane id=":A0_7_0" index="0" speed="13.89" length="27.20" shape="513.60,508.00 486.40,508.00"/>
        <lane id=":A0_7_1" index="1" speed="13.89" length="27.20" shape="513.60,504.80 486.40,504.80"/>
        <lane id=":A0_7_2" index="2" speed="13.89" length="27.20" shape="513.60,501.60 486.40,501.60"/>
    </edge>
    <edge id=":A0_10" function="internal">
        <lane id=":A0_10_0" index="0" speed="10.36" length="24.51" shape="513.60,501.60 506.95,500.65 502.20,497.80 499.35,493.05 498.40,486.40"/>
    </edge>
    <edge id=":A0_11" function="internal">
        <lane id=":A0_11_0" index="0" speed="3.65" length="4.67" shape="513.60,501.60 512.40,500.80 512.00,500.00 512.40,499.20 513.60,498.40"/>
    </edge>
    <edge id=":A0_12" function="internal">
        <lane id=":A0_12_0" index="0" speed="6.51" length="9.03" shape="508.00,486.40 508.35,488.85 509.40,490.60 511.15,491.65 513.60,492.00"/>
    </edge>
    <edge id=":A0_13" function="internal">
        <lane id=":A0_13_0" index="0" speed="13.89" length="27.20" shape="508.00,486.40 508.00,513.60"/>
        <lane id=":A0_13_1" index="1" speed="13.89" length="27.20" shape="504.80,486.40 504.80,513.60"/>
        <lane id=":A0_13_2" index="2" speed="13.89" length="27.20" shape="501.60,486.40 501.60,513.60"/>
    </edge>
    <edge id=":A0_16" function="internal">
        <lane id=":A0_16_0" index="0" speed="10.36" length="5.01" shape="501.60,486.40 500.89,491.36"/>
    </edge>
    <edge id=":A0_17" function="internal">
        <lane id=":A0_17_0" index="0" speed="3.65" length="1.44" shape="501.60,486.40 500.80,487.60"/>
    </edge>
    <edge id=":A0_26" function="internal">
        <lane id=":A0_26_0" index="0" speed="10.36" length="19.50" shape="500.89,491.36 500.65,493.05 497.80,497.80 493.05,500.65 486.40,501.60"/>
    </edge>
    <edge id=":A0_27" function="internal">
        <lane id=":A0_27_0" index="0" speed="3.65" length="3.23" shape="500.80,487.60 500.00,488.00 499.20,487.60 498.40,486.40"/>
    </edge>
    <edge id=":A0_18" function="internal">
        <lane id=":A0_18_0" index="0" speed="6.51" length="9.03" shape="486.40,492.00 488.85,491.65 490.60,490.60 491.65,488.85 492.00,486.40"/>
    </edge>
    <edge id=":A0_19" function="internal">
        <lane id=":A0_19_0" index="0" speed="13.89" length="27.20" shape="486.40,492.00 513.60,492.00"/>
        <lane id=":A0_19_1" index="1" speed="13.89" length="27.20" shape="486.40,495.20 513.60,495.20"/>
        <lane id=":A0_19_2" index="2" speed="13.89" length="27.20" shape="486.40,498.40 513.60,498.40"/>
    </edge>
    <edge id=":A0_22" function="internal">
        <lane id=":A0_22_0" index="0" speed="10.36" length="24.51" shape="486.40,498.40 493.05,499.35 497.80,502.20 500.65,506.95 501.60,513.60"/>
    </edge>
    <edge id=":A0_23" function="internal">
        <lane id=":A0_23_0" index="0" speed="3.65" length="4.67" shape="486.40,498.40 487.60,499.20 488.00,500.00 487.60,500.80 486.40,501.60"/>
    </edge>
    <edge id=":bottom0_0" function="internal">
        <lane id=":bottom0_0_0" index="0" speed="3.65" length="4.67" shape="498.40,0.00 499.20,-1.20 500.00,-1.60 500.80,-1.20 501.60,0.00"/>
    </edge>
    <edge id=":left0_0" function="internal">
        <lane id=":left0_0_0" index="0" speed="3.65" length="4.67" shape="0.00,501.60 -1.20,500.80 -1.60,500.00 -1.20,499.20 0.00,498.40"/>
    </edge>
    <edge id=":right0_0" function="internal">
        <lane id=":right0_0_0" index="0" speed="3.65" length="4.67" shape="1000.00,498.40 1001.20,499.20 1001.60,500.00 1001.20,500.80 1000.00,501.60"/>
    </edge>
    <edge id=":top0_0" function="internal">
        <lane id=":top0_0_0" index="0" speed="3.65" length="4.67" shape="501.60,1000.00 500.80,1001.20 500.00,1001.60 499.20,1001.20 498.40,1000.00"/>
    </edge>

    <edge id="A0bottom0" from="A0" to="bottom0" priority="-1">
        <lane id="A0bottom0_0" index="0" speed="13.89" length="486.40" shape="492.00,486.40 492.00,0.00"/>
        <lane id="A0bottom0_1" index="1" speed="13.89" length="486.40" shape="495.20,486.40 495.20,0.00"/>
        <lane id="A0bottom0_2" index="2" speed="13.89" length="486.40" shape="498.40,486.40 498.40,0.00"/>
    </edge>
    <edge id="A0left0" from="A0" to="left0" priority="-1">
        <lane id="A0left0_0" index="0" speed="13.89" length="486.40" shape="486.40,508.00 0.00,508.00"/>
        <lane id="A0left0_1" index="1" speed="13.89" length="486.40" shape="486.40,504.80 0.00,504.80"/>
        <lane id="A0left0_2" index="2" speed="13.89" length="486.40" shape="486.40,501.60 0.00,501.60"/>
    </edge>
    <edge id="A0right0" from="A0" to="right0" priority="-1">
        <lane id="A0right0_0" index="0" speed="13.89" length="486.40" shape="513.60,492.00 1000.00,492.00"/>
        <lane id="A0right0_1" index="1" speed="13.89" length="486.40" shape="513.60,495.20 1000.00,495.20"/>
        <lane id="A0right0_2" index="2" speed="13.89" length="486.40" shape="513.60,498.40 1000.00,498.40"/>
    </edge>
    <edge id="A0top0" from="A0" to="top0" priority="-1">
        <lane id="A0top0_0" index="0" speed="13.89" length="486.40" shape="508.00,513.60 508.00,1000.00"/>
        <lane id="A0top0_1" index="1" speed="13.89" length="486.40" shape="504.80,513.60 504.80,1000.00"/>
        <lane id="A0top0_2" index="2" speed="13.89" length="486.40" shape="501.60,513.60 501.60,1000.00"/>
    </edge>
    <edge id="bottom0A0" from="bottom0" to="A0" priority="-1">
        <lane id="bottom0A0_0" index="0" speed="13.89" length="486.40" shape="508.00,0.00 508.00,486.40"/>
        <lane id="bottom0A0_1" index="1" speed="13.89" length="486.40" shape="504.80,0.00 504.80,486.40"/>
        <lane id="bottom0A0_2" index="2" speed="13.89" length="486.40" shape="501.60,0.00 501.60,486.40"/>
    </edge>
    <edge id="left0A0" from="left0" to="A0" priority="-1">
        <lane id="left0A0_0" index="0" speed="13.89" length="486.40" shape="0.00,492.00 486.40,492.00"/>
        <lane id="left0A0_1" index="1" speed="13.89" length="486.40" shape="0.00,495.20 486.40,495.20"/>
        <lane id="left0A0_2" index="2" speed="13.89" length="486.40" shape="0.00,498.40 486.40,498.40"/>
    </edge>
    <edge id="right0A0" from="right0" to="A0" priority="-1">
        <lane id="right0A0_0" index="0" speed="13.89" length="486.40" shape="1000.00,508.00 513.60,508.00"/>
        <lane id="right0A0_1" index="1" speed="13.89" length="486.40" shape="1000.00,504.80 513.60,504.80"/>
        <lane id="right0A0_2" index="2" speed="13.89" length="486.40" shape="1000.00,501.60 513.60,501.60"/>
    </edge>
    <edge id="top0A0" from="top0" to="A0" priority="-1">
        <lane id="top0A0_0" index="0" speed="13.89" length="486.40" shape="492.00,1000.00 492.00,513.60"/>
        <lane id="top0A0_1" index="1" speed="13.89" length="486.40" shape="495.20,1000.00 495.20,513.60"/>
        <lane id="top0A0_2" index="2" speed="13.89" length="486.40" shape="498.40,1000.00 498.40,513.60"/>
    </edge>

    <junction id="A0" type="priority" x="500.00" y="500.00" incLanes="top0A0_0 top0A0_1 top0A0_2 right0A0_0 right0A0_1 right0A0_2 bottom0A0_0 bottom0A0_1 bottom0A0_2 left0A0_0 left0A0_1 left0A0_2" intLanes=":A0_0_0 :A0_1_0 :A0_1_1 :A0_1_2 :A0_24_0 :A0_25_0 :A0_6_0 :A0_7_0 :A0_7_1 :A0_7_2 :A0_10_0 :A0_11_0 :A0_12_0 :A0_13_0 :A0_13_1 :A0_13_2 :A0_26_0 :A0_27_0 :A0_18_0 :A0_19_0 :A0_19_1 :A0_19_2 :A0_22_0 :A0_23_0" shape="490.40,513.60 509.60,513.60 510.04,511.38 510.60,510.60 511.38,510.04 512.38,509.71 513.60,509.60 513.60,490.40 511.38,489.96 510.60,489.40 510.04,488.62 509.71,487.62 509.60,486.40 490.40,486.40 489.96,488.62 489.40,489.40 488.62,489.96 487.62,490.29 486.40,490.40 486.40,509.60 488.62,510.04 489.40,510.60 489.96,511.38 490.29,512.38">
        <request index="0"  response="000000000000000000000000" foes="000000000000001110000000" cont="0"/>
        <request index="1"  response="000000000000000000000000" foes="011111110000011110000000" cont="0"/>
        <request index="2"  response="000000000000000000000000" foes="011111110000011110000000" cont="0"/>
        <request index="3"  response="000000000000000000000000" foes="011111110000011110000000" cont="0"/>
        <request index="4"  response="000000001110000000000000" foes="011110001110111110000000" cont="1"/>
        <request index="5"  response="010000001110000000000000" foes="010000001110000000000000" cont="1"/>
        <request index="6"  response="000000001110000000000000" foes="000000001110000000000000" cont="0"/>
        <request index="7"  response="000000011110000000011111" foes="110000011110000000011111" cont="0"/>
        <request index="8"  response="000000011110000000011111" foes="110000011110000000011111" cont="0"/>
        <request index="9"  response="000000011110000000011111" foes="110000011110000000011111" cont="0"/>
        <request index="10" response="001110011110000000011110" foes="001110111110000000011110" cont="0"/>
        <request index="11" response="001110000000000000010000" foes="001110000000000000010000" cont="0"/>
        <request index="12" response="000000000000000000000000" foes="001110000000000000000000" cont="0"/>
        <request index="13" response="000000000000000000000000" foes="011110000000011111110000" cont="0"/>
        <request index="14" response="000000000000000000000000" foes="011110000000011111110000" cont="0"/>
        <request index="15" response="000000000000000000000000" foes="011110000000011111110000" cont="0"/>
        <request index="16" response="000000000000000000001110" foes="111110000000011110001110" cont="1"/>
        <request index="17" response="000000000000010000001110" foes="000000000000010000001110" cont="1"/>
        <request index="18" response="000000000000000000001110" foes="000000000000000000001110" cont="0"/>
        <request index="19" response="000000011111000000011110" foes="000000011111110000011110" cont="0"/>
        <request index="20" response="000000011111000000011110" foes="000000011111110000011110" cont="0"/>
        <request index="21" response="000000011111000000011110" foes="000000011111110000011110" cont="0"/>
        <request index="22" response="000000011110001110011110" foes="000000011110001110111110" cont="0"/>
        <request index="23" response="000000010000001110000000" foes="000000010000001110000000" cont="0"/>
    </junction>
    <junction id="bottom0" type="priority" x="500.00" y="0.00" incLanes="A0bottom0_0 A0bottom0_1 A0bottom0_2" intLanes=":bottom0_0_0" shape="500.00,0.00 490.40,0.00 500.00,0.00" fringe="outer">
        <request index="0" response="0" foes="0" cont="0"/>
    </junction>
    <junction id="left0" type="priority" x="0.00" y="500.00" incLanes="A0left0_0 A0left0_1 A0left0_2" intLanes=":left0_0_0" shape="0.00,500.00 0.00,509.60 0.00,500.00" fringe="outer">
        <request index="0" response="0" foes="0" cont="0"/>
    </junction>
    <junction id="right0" type="priority" x="1000.00" y="500.00" incLanes="A0right0_0 A0right0_1 A0right0_2" intLanes=":right0_0_0" shape="1000.00,500.00 1000.00,490.40 1000.00,500.00" fringe="outer">
        <request index="0" response="0" foes="0" cont="0"/>
    </junction>
    <junction id="top0" type="priority" x="500.00" y="1000.00" incLanes="A0top0_0 A0top0_1 A0top0_2" intLanes=":top0_0_0" shape="500.00,1000.00 509.60,1000.00 500.00,1000.00" fringe="outer">
        <request index="0" response="0" foes="0" cont="0"/>
    </junction>

    <junction id=":A0_24_0" type="internal" x="499.11" y="508.64" incLanes=":A0_4_0 bottom0A0_0 bottom0A0_1 bottom0A0_2" intLanes=":A0_7_0 :A0_7_1 :A0_7_2 :A0_10_0 :A0_11_0 :A0_12_0 :A0_13_0 :A0_13_1 :A0_13_2 :A0_19_0 :A0_19_1 :A0_19_2 :A0_22_0"/>
    <junction id=":A0_25_0" type="internal" x="499.20" y="512.40" incLanes=":A0_5_0 bottom0A0_0 bottom0A0_1 bottom0A0_2 left0A0_2 right0A0_0" intLanes=":A0_6_0 :A0_13_0 :A0_13_1 :A0_13_2 :A0_22_0"/>
    <junction id=":A0_26_0" type="internal" x="500.89" y="491.36" incLanes=":A0_16_0 top0A0_0 top0A0_1 top0A0_2" intLanes=":A0_0_0 :A0_1_0 :A0_1_1 :A0_1_2 :A0_7_0 :A0_7_1 :A0_7_2 :A0_10_0 :A0_19_0 :A0_19_1 :A0_19_2 :A0_22_0 :A0_23_0"/>
    <junction id=":A0_27_0" type="internal" x="500.80" y="487.60" incLanes=":A0_17_0 left0A0_0 right0A0_2 top0A0_0 top0A0_1 top0A0_2" intLanes=":A0_1_0 :A0_1_1 :A0_1_2 :A0_10_0 :A0_18_0"/>

    <connection from="A0bottom0" to="bottom0A0" fromLane="2" toLane="2" via=":bottom0_0_0" dir="t" state="M"/>
    <connection from="A0left0" to="left0A0" fromLane="2" toLane="2" via=":left0_0_0" dir="t" state="M"/>
    <connection from="A0right0" to="right0A0" fromLane="2" toLane="2" via=":right0_0_0" dir="t" state="M"/>
    <connection from="A0top0" to="top0A0" fromLane="2" toLane="2" via=":top0_0_0" dir="t" state="M"/>
    <connection from="bottom0A0" to="A0right0" fromLane="0" toLane="0" via=":A0_12_0" dir="r" state="M"/>
    <connection from="bottom0A0" to="A0top0" fromLane="0" toLane="0" via=":A0_13_0" dir="s" state="M"/>
    <connection from="bottom0A0" to="A0top0" fromLane="1" toLane="1" via=":A0_13_1" dir="s" state="M"/>
    <connection from="bottom0A0" to="A0top0" fromLane="2" toLane="2" via=":A0_13_2" dir="s" state="M"/>
    <connection from="bottom0A0" to="A0left0" fromLane="2" toLane="2" via=":A0_16_0" dir="l" state="m"/>
    <connection from="bottom0A0" to="A0bottom0" fromLane="2" toLane="2" via=":A0_17_0" dir="t" state="m"/>
    <connection from="left0A0" to="A0bottom0" fromLane="0" toLane="0" via=":A0_18_0" dir="r" state="m"/>
    <connection from="left0A0" to="A0right0" fromLane="0" toLane="0" via=":A0_19_0" dir="s" state="m"/>
    <connection from="left0A0" to="A0right0" fromLane="1" toLane="1" via=":A0_19_1" dir="s" state="m"/>
    <connection from="left0A0" to="A0right0" fromLane="2" toLane="2" via=":A0_19_2" dir="s" state="m"/>
    <connection from="left0A0" to="A0top0" fromLane="2" toLane="2" via=":A0_22_0" dir="l" state="m"/>
    <connection from="left0A0" to="A0left0" fromLane="2" toLane="2" via=":A0_23_0" dir="t" state="m"/>
    <connection from="right0A0" to="A0top0" fromLane="0" toLane="0" via=":A0_6_0" dir="r" state="m"/>
    <connection from="right0A0" to="A0left0" fromLane="0" toLane="0" via=":A0_7_0" dir="s" state="m"/>
    <connection from="right0A0" to="A0left0" fromLane="1" toLane="1" via=":A0_7_1" dir="s" state="m"/>
    <connection from="right0A0" to="A0left0" fromLane="2" toLane="2" via=":A0_7_2" dir="s" state="m"/>
    <connection from="right0A0" to="A0bottom0" fromLane="2" toLane="2" via=":A0_10_0" dir="l" state="m"/>
    <connection from="right0A0" to="A0right0" fromLane="2" toLane="2" via=":A0_11_0" dir="t" state="m"/>
    <connection from="top0A0" to="A0left0" fromLane="0" toLane="0" via=":A0_0_0" dir="r" state="M"/>
    <connection from="top0A0" to="A0bottom0" fromLane="0" toLane="0" via=":A0_1_0" dir="s" state="M"/>
    <connection from="top0A0" to="A0bottom0" fromLane="1" toLane="1" via=":A0_1_1" dir="s" state="M"/>
    <connection from="top0A0" to="A0bottom0" fromLane="2" toLane="2" via=":A0_1_2" dir="s" state="M"/>
    <connection from="top0A0" to="A0right0" fromLane="2" toLane="2" via=":A0_4_0" dir="l" state="m"/>
    <connection from="top0A0" to="A0top0" fromLane="2" toLane="2" via=":A0_5_0" dir="t" state="m"/>

    <connection from=":A0_0" to="A0left0" fromLane="0" toLane="0" dir="r" state="M"/>
    <connection from=":A0_1" to="A0bottom0" fromLane="0" toLane="0" dir="s" state="M"/>
    <connection from=":A0_1" to="A0bottom0" fromLane="1" toLane="1" dir="s" state="M"/>
    <connection from=":A0_1" to="A0bottom0" fromLane="2" toLane="2" dir="s" state="M"/>
    <connection from=":A0_4" to="A0right0" fromLane="0" toLane="2" via=":A0_24_0" dir="l" state="m"/>
    <connection from=":A0_24" to="A0right0" fromLane="0" toLane="2" dir="l" state="M"/>
    <connection from=":A0_5" to="A0top0" fromLane="0" toLane="2" via=":A0_25_0" dir="t" state="m"/>
    <connection from=":A0_25" to="A0top0" fromLane="0" toLane="2" dir="t" state="M"/>
    <connection from=":A0_6" to="A0top0" fromLane="0" toLane="0" dir="r" state="M"/>
    <connection from=":A0_7" to="A0left0" fromLane="0" toLane="0" dir="s" state="M"/>
    <connection from=":A0_7" to="A0left0" fromLane="1" toLane="1" dir="s" state="M"/>
    <connection from=":A0_7" to="A0left0" fromLane="2" toLane="2" dir="s" state="M"/>
    <connection from=":A0_10" to="A0bottom0" fromLane="0" toLane="2" dir="l" state="M"/>
    <connection from=":A0_11" to="A0right0" fromLane="0" toLane="2" dir="t" state="M"/>
    <connection from=":A0_12" to="A0right0" fromLane="0" toLane="0" dir="r" state="M"/>
    <connection from=":A0_13" to="A0top0" fromLane="0" toLane="0" dir="s" state="M"/>
    <connection from=":A0_13" to="A0top0" fromLane="1" toLane="1" dir="s" state="M"/>
    <connection from=":A0_13" to="A0top0" fromLane="2" toLane="2" dir="s" state="M"/>
    <connection from=":A0_16" to="A0left0" fromLane="0" toLane="2" via=":A0_26_0" dir="l" state="m"/>
    <connection from=":A0_26" to="A0left0" fromLane="0" toLane="2" dir="l" state="M"/>
    <connection from=":A0_17" to="A0bottom0" fromLane="0" toLane="2" via=":A0_27_0" dir="t" state="m"/>
    <connection from=":A0_27" to="A0bottom0" fromLane="0" toLane="2" dir="t" state="M"/>
    <connection from=":A0_18" to="A0bottom0" fromLane="0" toLane="0" dir="r" state="M"/>
    <connection from=":A0_19" to="A0right0" fromLane="0" toLane="0" dir="s" state="M"/>
    <connection from=":A0_19" to="A0right0" fromLane="1" toLane="1" dir="s" state="M"/>
    <connection from=":A0_19" to="A0right0" fromLane="2" toLane="2" dir="s" state="M"/>
    <connection from=":A0_22" to="A0top0" fromLane="0" toLane="2" dir="l" state="M"/>
    <connection from=":A0_23" to="A0left0" fromLane="0" toLane="2" dir="t" state="M"/>
    <connection from=":bottom0_0" to="bottom0A0" fromLane="0" toLane="2" dir="t" state="M"/>
    <connection from=":left0_0" to="left0A0" fromLane="0" toLane="2" dir="t" state="M"/>
    <connection from=":right0_0" to="right0A0" fromLane="0" toLane="2" dir="t" state="M"/>
    <connection from=":top0_0" to="top0A0" fromLane="0" toLane="2" dir="t" state="M"/>

</net>
