<?xml version="1.0" encoding="UTF-8"?>
<!-- This will be generated from NGSIM data preprocessing -->
<!-- Placeholder until data pipeline is ready -->
<routes xmlns:xsi="http://www.w3.org/2001/XMLSchema-instance" xsi:noNamespaceSchemaLocation="http://sumo.dlr.de/xsd/routes_file.xsd">
    
    <vType id="passenger" accel="2.6" decel="4.5" sigma="0.5" length="5.0" maxSpeed="33.0" guiShape="passenger"/>
    <vType id="truck" accel="1.3" decel="4.0" sigma="0.5" length="12.0" maxSpeed="25.0" guiShape="truck"/>
    
    <!-- Routes will be generated by data_preprocessing/generate_routes.py -->
    <!-- This file will be overwritten -->
    
</routes>